* NGSPICE file created from tt_um_lightrail_nce.ext - technology: sky130A

* Black-box entry subcircuit for sky130_fd_sc_hd__tapvpwrvgnd_1 abstract view
.subckt sky130_fd_sc_hd__tapvpwrvgnd_1 VGND VPWR
.ends

* Black-box entry subcircuit for sky130_ef_sc_hd__decap_12 abstract view
.subckt sky130_ef_sc_hd__decap_12 VPWR VGND VPB VNB
.ends

* Black-box entry subcircuit for sky130_fd_sc_hd__a32o_1 abstract view
.subckt sky130_fd_sc_hd__a32o_1 A1 A2 A3 B1 B2 VGND VNB VPB VPWR X
.ends

* Black-box entry subcircuit for sky130_fd_sc_hd__decap_3 abstract view
.subckt sky130_fd_sc_hd__decap_3 VGND VNB VPB VPWR
.ends

* Black-box entry subcircuit for sky130_fd_sc_hd__a211o_1 abstract view
.subckt sky130_fd_sc_hd__a211o_1 A1 A2 B1 C1 VGND VNB VPB VPWR X
.ends

* Black-box entry subcircuit for sky130_fd_sc_hd__clkbuf_1 abstract view
.subckt sky130_fd_sc_hd__clkbuf_1 A VGND VNB VPB VPWR X
.ends

* Black-box entry subcircuit for sky130_fd_sc_hd__nand2_1 abstract view
.subckt sky130_fd_sc_hd__nand2_1 A B VGND VNB VPB VPWR Y
.ends

* Black-box entry subcircuit for sky130_fd_sc_hd__fill_1 abstract view
.subckt sky130_fd_sc_hd__fill_1 VGND VNB VPB VPWR
.ends

* Black-box entry subcircuit for sky130_fd_sc_hd__and3_1 abstract view
.subckt sky130_fd_sc_hd__and3_1 A B C VGND VNB VPB VPWR X
.ends

* Black-box entry subcircuit for sky130_fd_sc_hd__decap_6 abstract view
.subckt sky130_fd_sc_hd__decap_6 VGND VNB VPB VPWR
.ends

* Black-box entry subcircuit for sky130_fd_sc_hd__nor2_1 abstract view
.subckt sky130_fd_sc_hd__nor2_1 A B VGND VNB VPB VPWR Y
.ends

* Black-box entry subcircuit for sky130_fd_sc_hd__o211a_1 abstract view
.subckt sky130_fd_sc_hd__o211a_1 A1 A2 B1 C1 VGND VNB VPB VPWR X
.ends

* Black-box entry subcircuit for sky130_fd_sc_hd__and2_1 abstract view
.subckt sky130_fd_sc_hd__and2_1 A B VGND VNB VPB VPWR X
.ends

* Black-box entry subcircuit for sky130_fd_sc_hd__dfxtp_1 abstract view
.subckt sky130_fd_sc_hd__dfxtp_1 CLK D VGND VNB VPB VPWR Q
.ends

* Black-box entry subcircuit for sky130_fd_sc_hd__xor2_1 abstract view
.subckt sky130_fd_sc_hd__xor2_1 A B VGND VNB VPB VPWR X
.ends

* Black-box entry subcircuit for sky130_fd_sc_hd__fill_2 abstract view
.subckt sky130_fd_sc_hd__fill_2 VGND VNB VPB VPWR
.ends

* Black-box entry subcircuit for sky130_fd_sc_hd__decap_4 abstract view
.subckt sky130_fd_sc_hd__decap_4 VGND VNB VPB VPWR
.ends

* Black-box entry subcircuit for sky130_fd_sc_hd__a21o_1 abstract view
.subckt sky130_fd_sc_hd__a21o_1 A1 A2 B1 VGND VNB VPB VPWR X
.ends

* Black-box entry subcircuit for sky130_fd_sc_hd__clkbuf_2 abstract view
.subckt sky130_fd_sc_hd__clkbuf_2 A VGND VNB VPB VPWR X
.ends

* Black-box entry subcircuit for sky130_fd_sc_hd__a22oi_1 abstract view
.subckt sky130_fd_sc_hd__a22oi_1 A1 A2 B1 B2 VGND VNB VPB VPWR Y
.ends

* Black-box entry subcircuit for sky130_fd_sc_hd__a21oi_1 abstract view
.subckt sky130_fd_sc_hd__a21oi_1 A1 A2 B1 VGND VNB VPB VPWR Y
.ends

* Black-box entry subcircuit for sky130_fd_sc_hd__decap_8 abstract view
.subckt sky130_fd_sc_hd__decap_8 VGND VNB VPB VPWR
.ends

* Black-box entry subcircuit for sky130_fd_sc_hd__nand3_1 abstract view
.subckt sky130_fd_sc_hd__nand3_1 A B C VGND VNB VPB VPWR Y
.ends

* Black-box entry subcircuit for sky130_fd_sc_hd__or2_1 abstract view
.subckt sky130_fd_sc_hd__or2_1 A B VGND VNB VPB VPWR X
.ends

* Black-box entry subcircuit for sky130_fd_sc_hd__a21bo_1 abstract view
.subckt sky130_fd_sc_hd__a21bo_1 A1 A2 B1_N VGND VNB VPB VPWR X
.ends

* Black-box entry subcircuit for sky130_fd_sc_hd__a2bb2o_1 abstract view
.subckt sky130_fd_sc_hd__a2bb2o_1 A1_N A2_N B1 B2 VGND VNB VPB VPWR X
.ends

* Black-box entry subcircuit for sky130_fd_sc_hd__o21ai_1 abstract view
.subckt sky130_fd_sc_hd__o21ai_1 A1 A2 B1 VGND VNB VPB VPWR Y
.ends

* Black-box entry subcircuit for sky130_fd_sc_hd__and2b_1 abstract view
.subckt sky130_fd_sc_hd__and2b_1 A_N B VGND VNB VPB VPWR X
.ends

* Black-box entry subcircuit for sky130_fd_sc_hd__mux4_1 abstract view
.subckt sky130_fd_sc_hd__mux4_1 A0 A1 A2 A3 S0 S1 VGND VNB VPB VPWR X
.ends

* Black-box entry subcircuit for sky130_fd_sc_hd__and4_2 abstract view
.subckt sky130_fd_sc_hd__and4_2 A B C D VGND VNB VPB VPWR X
.ends

* Black-box entry subcircuit for sky130_fd_sc_hd__a21boi_1 abstract view
.subckt sky130_fd_sc_hd__a21boi_1 A1 A2 B1_N VGND VNB VPB VPWR Y
.ends

* Black-box entry subcircuit for sky130_fd_sc_hd__buf_1 abstract view
.subckt sky130_fd_sc_hd__buf_1 A VGND VNB VPB VPWR X
.ends

* Black-box entry subcircuit for sky130_fd_sc_hd__or3_1 abstract view
.subckt sky130_fd_sc_hd__or3_1 A B C VGND VNB VPB VPWR X
.ends

* Black-box entry subcircuit for sky130_fd_sc_hd__inv_2 abstract view
.subckt sky130_fd_sc_hd__inv_2 A VGND VNB VPB VPWR Y
.ends

* Black-box entry subcircuit for sky130_fd_sc_hd__xnor2_1 abstract view
.subckt sky130_fd_sc_hd__xnor2_1 A B VGND VNB VPB VPWR Y
.ends

* Black-box entry subcircuit for sky130_fd_sc_hd__buf_2 abstract view
.subckt sky130_fd_sc_hd__buf_2 A VGND VNB VPB VPWR X
.ends

* Black-box entry subcircuit for sky130_fd_sc_hd__or3_2 abstract view
.subckt sky130_fd_sc_hd__or3_2 A B C VGND VNB VPB VPWR X
.ends

* Black-box entry subcircuit for sky130_fd_sc_hd__o211ai_2 abstract view
.subckt sky130_fd_sc_hd__o211ai_2 A1 A2 B1 C1 VGND VNB VPB VPWR Y
.ends

* Black-box entry subcircuit for sky130_fd_sc_hd__a211oi_1 abstract view
.subckt sky130_fd_sc_hd__a211oi_1 A1 A2 B1 C1 VGND VNB VPB VPWR Y
.ends

* Black-box entry subcircuit for sky130_fd_sc_hd__o211ai_1 abstract view
.subckt sky130_fd_sc_hd__o211ai_1 A1 A2 B1 C1 VGND VNB VPB VPWR Y
.ends

* Black-box entry subcircuit for sky130_fd_sc_hd__a22o_1 abstract view
.subckt sky130_fd_sc_hd__a22o_1 A1 A2 B1 B2 VGND VNB VPB VPWR X
.ends

* Black-box entry subcircuit for sky130_fd_sc_hd__or4_1 abstract view
.subckt sky130_fd_sc_hd__or4_1 A B C D VGND VNB VPB VPWR X
.ends

* Black-box entry subcircuit for sky130_fd_sc_hd__nand3_2 abstract view
.subckt sky130_fd_sc_hd__nand3_2 A B C VGND VNB VPB VPWR Y
.ends

* Black-box entry subcircuit for sky130_fd_sc_hd__or4bb_1 abstract view
.subckt sky130_fd_sc_hd__or4bb_1 A B C_N D_N VGND VNB VPB VPWR X
.ends

* Black-box entry subcircuit for sky130_fd_sc_hd__o21bai_2 abstract view
.subckt sky130_fd_sc_hd__o21bai_2 A1 A2 B1_N VGND VNB VPB VPWR Y
.ends

* Black-box entry subcircuit for sky130_fd_sc_hd__or2_2 abstract view
.subckt sky130_fd_sc_hd__or2_2 A B VGND VNB VPB VPWR X
.ends

* Black-box entry subcircuit for sky130_fd_sc_hd__a31o_1 abstract view
.subckt sky130_fd_sc_hd__a31o_1 A1 A2 A3 B1 VGND VNB VPB VPWR X
.ends

* Black-box entry subcircuit for sky130_fd_sc_hd__a22oi_2 abstract view
.subckt sky130_fd_sc_hd__a22oi_2 A1 A2 B1 B2 VGND VNB VPB VPWR Y
.ends

* Black-box entry subcircuit for sky130_fd_sc_hd__o21ai_2 abstract view
.subckt sky130_fd_sc_hd__o21ai_2 A1 A2 B1 VGND VNB VPB VPWR Y
.ends

* Black-box entry subcircuit for sky130_fd_sc_hd__clkbuf_4 abstract view
.subckt sky130_fd_sc_hd__clkbuf_4 A VGND VNB VPB VPWR X
.ends

* Black-box entry subcircuit for sky130_fd_sc_hd__and4_1 abstract view
.subckt sky130_fd_sc_hd__and4_1 A B C D VGND VNB VPB VPWR X
.ends

* Black-box entry subcircuit for sky130_fd_sc_hd__clkbuf_16 abstract view
.subckt sky130_fd_sc_hd__clkbuf_16 A VGND VNB VPB VPWR X
.ends

* Black-box entry subcircuit for sky130_fd_sc_hd__conb_1 abstract view
.subckt sky130_fd_sc_hd__conb_1 VGND VNB VPB VPWR HI LO
.ends

* Black-box entry subcircuit for sky130_fd_sc_hd__dlymetal6s2s_1 abstract view
.subckt sky130_fd_sc_hd__dlymetal6s2s_1 A VGND VNB VPB VPWR X
.ends

* Black-box entry subcircuit for sky130_fd_sc_hd__and3b_1 abstract view
.subckt sky130_fd_sc_hd__and3b_1 A_N B C VGND VNB VPB VPWR X
.ends

* Black-box entry subcircuit for sky130_fd_sc_hd__o21a_1 abstract view
.subckt sky130_fd_sc_hd__o21a_1 A1 A2 B1 VGND VNB VPB VPWR X
.ends

* Black-box entry subcircuit for sky130_fd_sc_hd__xnor2_2 abstract view
.subckt sky130_fd_sc_hd__xnor2_2 A B VGND VNB VPB VPWR Y
.ends

* Black-box entry subcircuit for sky130_fd_sc_hd__or2b_1 abstract view
.subckt sky130_fd_sc_hd__or2b_1 A B_N VGND VNB VPB VPWR X
.ends

* Black-box entry subcircuit for sky130_fd_sc_hd__o31ai_4 abstract view
.subckt sky130_fd_sc_hd__o31ai_4 A1 A2 A3 B1 VGND VNB VPB VPWR Y
.ends

* Black-box entry subcircuit for sky130_fd_sc_hd__nand4_4 abstract view
.subckt sky130_fd_sc_hd__nand4_4 A B C D VGND VNB VPB VPWR Y
.ends

* Black-box entry subcircuit for sky130_fd_sc_hd__nand3_4 abstract view
.subckt sky130_fd_sc_hd__nand3_4 A B C VGND VNB VPB VPWR Y
.ends

* Black-box entry subcircuit for sky130_fd_sc_hd__or3b_1 abstract view
.subckt sky130_fd_sc_hd__or3b_1 A B C_N VGND VNB VPB VPWR X
.ends

* Black-box entry subcircuit for sky130_fd_sc_hd__o21ba_1 abstract view
.subckt sky130_fd_sc_hd__o21ba_1 A1 A2 B1_N VGND VNB VPB VPWR X
.ends

* Black-box entry subcircuit for sky130_fd_sc_hd__nor3_1 abstract view
.subckt sky130_fd_sc_hd__nor3_1 A B C VGND VNB VPB VPWR Y
.ends

* Black-box entry subcircuit for sky130_fd_sc_hd__and3b_2 abstract view
.subckt sky130_fd_sc_hd__and3b_2 A_N B C VGND VNB VPB VPWR X
.ends

* Black-box entry subcircuit for sky130_fd_sc_hd__and4bb_1 abstract view
.subckt sky130_fd_sc_hd__and4bb_1 A_N B_N C D VGND VNB VPB VPWR X
.ends

* Black-box entry subcircuit for sky130_fd_sc_hd__o2bb2a_1 abstract view
.subckt sky130_fd_sc_hd__o2bb2a_1 A1_N A2_N B1 B2 VGND VNB VPB VPWR X
.ends

* Black-box entry subcircuit for sky130_fd_sc_hd__a21oi_2 abstract view
.subckt sky130_fd_sc_hd__a21oi_2 A1 A2 B1 VGND VNB VPB VPWR Y
.ends

* Black-box entry subcircuit for sky130_fd_sc_hd__xor2_2 abstract view
.subckt sky130_fd_sc_hd__xor2_2 A B VGND VNB VPB VPWR X
.ends

* Black-box entry subcircuit for sky130_fd_sc_hd__a221o_1 abstract view
.subckt sky130_fd_sc_hd__a221o_1 A1 A2 B1 B2 C1 VGND VNB VPB VPWR X
.ends

* Black-box entry subcircuit for sky130_fd_sc_hd__a31oi_2 abstract view
.subckt sky130_fd_sc_hd__a31oi_2 A1 A2 A3 B1 VGND VNB VPB VPWR Y
.ends

* Black-box entry subcircuit for sky130_fd_sc_hd__o31a_1 abstract view
.subckt sky130_fd_sc_hd__o31a_1 A1 A2 A3 B1 VGND VNB VPB VPWR X
.ends

* Black-box entry subcircuit for sky130_fd_sc_hd__dlygate4sd3_1 abstract view
.subckt sky130_fd_sc_hd__dlygate4sd3_1 A VGND VNB VPB VPWR X
.ends

* Black-box entry subcircuit for sky130_fd_sc_hd__o2111a_1 abstract view
.subckt sky130_fd_sc_hd__o2111a_1 A1 A2 B1 C1 D1 VGND VNB VPB VPWR X
.ends

* Black-box entry subcircuit for sky130_fd_sc_hd__or4b_1 abstract view
.subckt sky130_fd_sc_hd__or4b_1 A B C D_N VGND VNB VPB VPWR X
.ends

* Black-box entry subcircuit for sky130_fd_sc_hd__o221a_1 abstract view
.subckt sky130_fd_sc_hd__o221a_1 A1 A2 B1 B2 C1 VGND VNB VPB VPWR X
.ends

* Black-box entry subcircuit for sky130_fd_sc_hd__nand3b_1 abstract view
.subckt sky130_fd_sc_hd__nand3b_1 A_N B C VGND VNB VPB VPWR Y
.ends

* Black-box entry subcircuit for sky130_fd_sc_hd__nor2_2 abstract view
.subckt sky130_fd_sc_hd__nor2_2 A B VGND VNB VPB VPWR Y
.ends

* Black-box entry subcircuit for sky130_fd_sc_hd__and2_2 abstract view
.subckt sky130_fd_sc_hd__and2_2 A B VGND VNB VPB VPWR X
.ends

* Black-box entry subcircuit for sky130_fd_sc_hd__mux2_1 abstract view
.subckt sky130_fd_sc_hd__mux2_1 A0 A1 S VGND VNB VPB VPWR X
.ends

* Black-box entry subcircuit for sky130_fd_sc_hd__nor3b_1 abstract view
.subckt sky130_fd_sc_hd__nor3b_1 A B C_N VGND VNB VPB VPWR Y
.ends

* Black-box entry subcircuit for sky130_fd_sc_hd__and4b_1 abstract view
.subckt sky130_fd_sc_hd__and4b_1 A_N B C D VGND VNB VPB VPWR X
.ends

* Black-box entry subcircuit for sky130_fd_sc_hd__a211oi_2 abstract view
.subckt sky130_fd_sc_hd__a211oi_2 A1 A2 B1 C1 VGND VNB VPB VPWR Y
.ends

* Black-box entry subcircuit for sky130_fd_sc_hd__diode_2 abstract view
.subckt sky130_fd_sc_hd__diode_2 DIODE VGND VNB VPB VPWR
.ends

.subckt tt_um_lightrail_nce VGND VPWR clk ena rst_n ui_in[0] ui_in[1] ui_in[2] ui_in[3]
+ ui_in[4] ui_in[5] ui_in[6] ui_in[7] uio_in[0] uio_in[1] uio_in[2] uio_in[3] uio_in[4]
+ uio_in[5] uio_in[6] uio_in[7] uio_oe[0] uio_oe[1] uio_oe[2] uio_oe[3] uio_oe[4]
+ uio_oe[5] uio_oe[6] uio_oe[7] uio_out[0] uio_out[1] uio_out[2] uio_out[3] uio_out[4]
+ uio_out[5] uio_out[6] uio_out[7] uo_out[0] uo_out[1] uo_out[2] uo_out[3] uo_out[4]
+ uo_out[5] uo_out[6] uo_out[7]
XTAP_TAPCELL_ROW_17_180 VGND VPWR sky130_fd_sc_hd__tapvpwrvgnd_1
XTAP_TAPCELL_ROW_9_137 VGND VPWR sky130_fd_sc_hd__tapvpwrvgnd_1
XFILLER_0_3_39 VPWR VGND VPWR VGND sky130_ef_sc_hd__decap_12
XTAP_TAPCELL_ROW_14_161 VGND VPWR sky130_fd_sc_hd__tapvpwrvgnd_1
X_0985_ _0857_/A _0983_/X _0984_/Y _0858_/X _0628_/B VGND VGND VPWR VPWR _0986_/B
+ sky130_fd_sc_hd__a32o_1
XFILLER_0_38_81 VGND VGND VPWR VPWR sky130_fd_sc_hd__decap_3
XTAP_TAPCELL_ROW_6_118 VGND VPWR sky130_fd_sc_hd__tapvpwrvgnd_1
XFILLER_0_37_317 VPWR VGND VPWR VGND sky130_ef_sc_hd__decap_12
XTAP_TAPCELL_ROW_20_197 VGND VPWR sky130_fd_sc_hd__tapvpwrvgnd_1
XTAP_TAPCELL_ROW_28_242 VGND VPWR sky130_fd_sc_hd__tapvpwrvgnd_1
X_0770_ _0767_/X _0768_/X _0741_/B _0762_/X VGND VGND VPWR VPWR _0771_/C sky130_fd_sc_hd__a211o_1
X_1184_ _1184_/A VGND VGND VPWR VPWR _1244_/D sky130_fd_sc_hd__clkbuf_1
XFILLER_0_34_309 VPWR VGND VPWR VGND sky130_ef_sc_hd__decap_12
X_0968_ _0968_/A _0968_/B VGND VGND VPWR VPWR _0969_/B sky130_fd_sc_hd__nand2_1
XFILLER_0_19_317 VGND VGND VPWR VPWR sky130_fd_sc_hd__fill_1
XFILLER_0_24_83 VGND VGND VPWR VPWR sky130_fd_sc_hd__fill_1
X_0899_ _0939_/B _0899_/B _0899_/C VGND VGND VPWR VPWR _0904_/B sky130_fd_sc_hd__and3_1
XTAP_TAPCELL_ROW_25_223 VGND VPWR sky130_fd_sc_hd__tapvpwrvgnd_1
XFILLER_0_20_19 VGND VGND VPWR VPWR sky130_fd_sc_hd__fill_1
XFILLER_0_25_309 VPWR VGND VPWR VGND sky130_ef_sc_hd__decap_12
XFILLER_0_29_39 VPWR VGND VPWR VGND sky130_ef_sc_hd__decap_12
XFILLER_0_0_29 VPWR VGND VPWR VGND sky130_ef_sc_hd__decap_12
XFILLER_0_9_49 VGND VGND VPWR VPWR sky130_fd_sc_hd__decap_6
X_0822_ _0822_/A _0822_/B VGND VGND VPWR VPWR _0827_/B sky130_fd_sc_hd__nor2_1
XFILLER_0_16_309 VPWR VGND VPWR VGND sky130_ef_sc_hd__decap_12
XFILLER_0_3_225 VPWR VGND VPWR VGND sky130_ef_sc_hd__decap_12
XFILLER_0_10_41 VPWR VGND VPWR VGND sky130_ef_sc_hd__decap_12
XFILLER_0_10_85 VPWR VGND VPWR VGND sky130_ef_sc_hd__decap_12
X_0684_ _1066_/B _0646_/X _0682_/X _0683_/X VGND VGND VPWR VPWR _1223_/D sky130_fd_sc_hd__o211a_1
X_0753_ _0860_/A _0753_/B VGND VGND VPWR VPWR _0754_/A sky130_fd_sc_hd__and2_1
X_1236_ _1241_/CLK _1236_/D VGND VGND VPWR VPWR _1236_/Q sky130_fd_sc_hd__dfxtp_1
X_1167_ _1197_/A _1167_/B VGND VGND VPWR VPWR _1168_/A sky130_fd_sc_hd__and2_1
X_1098_ _1098_/A _1113_/B VGND VGND VPWR VPWR _1100_/B sky130_fd_sc_hd__xor2_1
XFILLER_0_19_147 VPWR VGND VPWR VGND sky130_ef_sc_hd__decap_12
XTAP_TAPCELL_ROW_22_204 VGND VPWR sky130_fd_sc_hd__tapvpwrvgnd_1
XFILLER_0_34_139 VGND VGND VPWR VPWR sky130_fd_sc_hd__fill_1
XFILLER_0_19_169 VGND VGND VPWR VPWR sky130_fd_sc_hd__fill_2
XPHY_EDGE_ROW_8_Left_47 VGND VGND VPWR VPWR sky130_fd_sc_hd__decap_3
XFILLER_0_18_191 VGND VGND VPWR VPWR sky130_fd_sc_hd__decap_4
X_1021_ _1021_/A VGND VGND VPWR VPWR _1236_/D sky130_fd_sc_hd__clkbuf_1
X_0805_ _0804_/B _0804_/C _0804_/A VGND VGND VPWR VPWR _0807_/B sky130_fd_sc_hd__a21o_1
XFILLER_0_12_312 VGND VGND VPWR VPWR sky130_fd_sc_hd__fill_1
XFILLER_0_16_139 VGND VGND VPWR VPWR sky130_fd_sc_hd__fill_1
XFILLER_0_21_73 VGND VGND VPWR VPWR sky130_fd_sc_hd__decap_4
X_0667_ ui_in[3] VGND VGND VPWR VPWR _0922_/C sky130_fd_sc_hd__clkbuf_2
X_0736_ _0737_/B _0916_/D _0649_/A _1003_/D VGND VGND VPWR VPWR _0738_/A sky130_fd_sc_hd__a22oi_1
XFILLER_0_24_183 VPWR VGND VPWR VGND sky130_ef_sc_hd__decap_12
XFILLER_0_34_3 VPWR VGND VPWR VGND sky130_ef_sc_hd__decap_12
X_1219_ _1234_/CLK _1219_/D VGND VGND VPWR VPWR _1219_/Q sky130_fd_sc_hd__dfxtp_1
XFILLER_0_30_153 VGND VGND VPWR VPWR sky130_fd_sc_hd__decap_3
XFILLER_0_26_29 VPWR VGND VPWR VGND sky130_ef_sc_hd__decap_12
XFILLER_0_38_253 VPWR VGND VPWR VGND sky130_ef_sc_hd__decap_12
XFILLER_0_32_83 VGND VGND VPWR VPWR sky130_fd_sc_hd__fill_1
XFILLER_0_8_158 VPWR VGND VPWR VGND sky130_ef_sc_hd__decap_12
X_1004_ _1004_/A _1035_/A VGND VGND VPWR VPWR _1024_/B sky130_fd_sc_hd__nor2_1
XFILLER_0_12_197 VGND VGND VPWR VPWR sky130_fd_sc_hd__decap_4
X_0719_ _0914_/D _0700_/C _0614_/B VGND VGND VPWR VPWR _0719_/Y sky130_fd_sc_hd__a21oi_1
XFILLER_0_35_278 VGND VGND VPWR VPWR sky130_fd_sc_hd__fill_2
XFILLER_0_35_234 VPWR VGND VPWR VGND sky130_ef_sc_hd__decap_12
XFILLER_0_26_245 VGND VGND VPWR VPWR sky130_fd_sc_hd__decap_4
XFILLER_0_27_94 VPWR VGND VPWR VGND sky130_ef_sc_hd__decap_12
XTAP_TAPCELL_ROW_17_181 VGND VPWR sky130_fd_sc_hd__tapvpwrvgnd_1
XPHY_EDGE_ROW_37_Left_76 VGND VGND VPWR VPWR sky130_fd_sc_hd__decap_3
XFILLER_0_2_109 VPWR VGND VPWR VGND sky130_ef_sc_hd__decap_12
XFILLER_0_31_281 VPWR VGND VPWR VGND sky130_ef_sc_hd__decap_12
XFILLER_0_31_270 VGND VGND VPWR VPWR sky130_fd_sc_hd__decap_8
XTAP_TAPCELL_ROW_14_162 VGND VPWR sky130_fd_sc_hd__tapvpwrvgnd_1
X_0984_ _0984_/A _0984_/B _0984_/C VGND VGND VPWR VPWR _0984_/Y sky130_fd_sc_hd__nand3_1
XTAP_TAPCELL_ROW_6_119 VGND VPWR sky130_fd_sc_hd__tapvpwrvgnd_1
XFILLER_0_37_329 VGND VGND VPWR VPWR sky130_fd_sc_hd__decap_3
XTAP_TAPCELL_ROW_37_287 VGND VPWR sky130_fd_sc_hd__tapvpwrvgnd_1
XTAP_TAPCELL_ROW_20_198 VGND VPWR sky130_fd_sc_hd__tapvpwrvgnd_1
XFILLER_0_13_281 VPWR VGND VPWR VGND sky130_ef_sc_hd__decap_12
XFILLER_0_20_218 VGND VGND VPWR VPWR sky130_fd_sc_hd__decap_3
XFILLER_0_34_29 VPWR VGND VPWR VGND sky130_ef_sc_hd__decap_12
X_1183_ _1197_/A _1183_/B VGND VGND VPWR VPWR _1184_/A sky130_fd_sc_hd__and2_1
XFILLER_0_6_278 VPWR VGND VPWR VGND sky130_ef_sc_hd__decap_12
X_0967_ _0967_/A _0971_/A VGND VGND VPWR VPWR _0968_/B sky130_fd_sc_hd__or2_1
X_0898_ _0851_/A _0851_/C _0851_/B VGND VGND VPWR VPWR _0899_/C sky130_fd_sc_hd__a21bo_1
XFILLER_0_10_273 VGND VGND VPWR VPWR sky130_fd_sc_hd__fill_2
XPHY_EDGE_ROW_12_Right_12 VGND VGND VPWR VPWR sky130_fd_sc_hd__decap_3
XFILLER_0_4_83 VGND VGND VPWR VPWR sky130_fd_sc_hd__fill_1
XPHY_EDGE_ROW_21_Right_21 VGND VGND VPWR VPWR sky130_fd_sc_hd__decap_3
XFILLER_0_37_148 VPWR VGND VPWR VGND sky130_ef_sc_hd__decap_12
XTAP_TAPCELL_ROW_25_224 VGND VPWR sky130_fd_sc_hd__tapvpwrvgnd_1
XPHY_EDGE_ROW_30_Right_30 VGND VGND VPWR VPWR sky130_fd_sc_hd__decap_3
X_0821_ _0821_/A _0821_/B VGND VGND VPWR VPWR _0853_/A sky130_fd_sc_hd__and2_1
X_0752_ _0698_/X _0782_/A _0751_/Y _1088_/B _0627_/D VGND VGND VPWR VPWR _0753_/B
+ sky130_fd_sc_hd__a32o_1
X_0683_ _1212_/A VGND VGND VPWR VPWR _0683_/X sky130_fd_sc_hd__clkbuf_2
XFILLER_0_3_237 VPWR VGND VPWR VGND sky130_ef_sc_hd__decap_12
XFILLER_0_10_53 VGND VGND VPWR VPWR sky130_fd_sc_hd__decap_8
XFILLER_0_10_97 VGND VGND VPWR VPWR sky130_fd_sc_hd__decap_4
XPHY_EDGE_ROW_24_Left_63 VGND VGND VPWR VPWR sky130_fd_sc_hd__decap_3
X_1166_ _1161_/X _1164_/X _1165_/X _1242_/Q VGND VGND VPWR VPWR _1167_/B sky130_fd_sc_hd__a2bb2o_1
X_1235_ _1241_/CLK _1235_/D VGND VGND VPWR VPWR _1235_/Q sky130_fd_sc_hd__dfxtp_1
X_1097_ _1073_/A _1073_/B _1063_/B VGND VGND VPWR VPWR _1113_/B sky130_fd_sc_hd__o21ai_1
XFILLER_0_19_159 VGND VGND VPWR VPWR sky130_fd_sc_hd__decap_4
XTAP_TAPCELL_ROW_22_205 VGND VPWR sky130_fd_sc_hd__tapvpwrvgnd_1
XFILLER_0_15_310 VGND VGND VPWR VPWR sky130_fd_sc_hd__decap_6
X_1020_ _1086_/A _1020_/B VGND VGND VPWR VPWR _1021_/A sky130_fd_sc_hd__and2_1
X_0804_ _0804_/A _0804_/B _0804_/C VGND VGND VPWR VPWR _0807_/A sky130_fd_sc_hd__nand3_1
XFILLER_0_12_302 VGND VGND VPWR VPWR sky130_fd_sc_hd__decap_6
X_0735_ _0726_/B _0735_/B VGND VGND VPWR VPWR _0749_/A sky130_fd_sc_hd__and2b_1
XFILLER_0_24_195 VGND VGND VPWR VPWR sky130_fd_sc_hd__fill_1
X_0666_ _0737_/B _0646_/X _0665_/X _0654_/X VGND VGND VPWR VPWR _1220_/D sky130_fd_sc_hd__o211a_1
X_1149_ _0619_/C _1155_/A _1095_/A _1240_/Q input9/X _1142_/A VGND VGND VPWR VPWR
+ _1209_/B sky130_fd_sc_hd__mux4_1
XFILLER_0_1_51 VGND VGND VPWR VPWR sky130_fd_sc_hd__decap_4
X_1218_ _1234_/CLK _1218_/D VGND VGND VPWR VPWR _1218_/Q sky130_fd_sc_hd__dfxtp_1
XFILLER_0_27_3 VPWR VGND VPWR VGND sky130_ef_sc_hd__decap_12
XFILLER_0_30_187 VGND VGND VPWR VPWR sky130_fd_sc_hd__fill_2
XFILLER_0_15_151 VPWR VGND VPWR VGND sky130_ef_sc_hd__decap_12
XFILLER_0_38_265 VGND VGND VPWR VPWR sky130_fd_sc_hd__decap_3
XFILLER_0_21_110 VGND VGND VPWR VPWR sky130_fd_sc_hd__fill_2
XFILLER_0_6_29 VPWR VGND VPWR VGND sky130_ef_sc_hd__decap_12
XFILLER_0_16_85 VGND VGND VPWR VPWR sky130_fd_sc_hd__decap_8
X_1003_ _1003_/A _1064_/A input3/X _1003_/D VGND VGND VPWR VPWR _1035_/A sky130_fd_sc_hd__and4_2
XFILLER_0_4_321 VPWR VGND VPWR VGND sky130_ef_sc_hd__decap_12
XPHY_EDGE_ROW_6_Right_6 VGND VGND VPWR VPWR sky130_fd_sc_hd__decap_3
XFILLER_0_12_165 VGND VGND VPWR VPWR sky130_fd_sc_hd__fill_1
XFILLER_0_12_176 VGND VGND VPWR VPWR sky130_fd_sc_hd__fill_1
X_0718_ _1220_/Q VGND VGND VPWR VPWR _0914_/D sky130_fd_sc_hd__clkbuf_2
X_0649_ _0649_/A VGND VGND VPWR VPWR _0727_/B sky130_fd_sc_hd__clkbuf_2
XPHY_EDGE_ROW_11_Left_50 VGND VGND VPWR VPWR sky130_fd_sc_hd__decap_3
XFILLER_0_35_246 VPWR VGND VPWR VGND sky130_ef_sc_hd__decap_12
XFILLER_0_37_18 VPWR VGND VPWR VGND sky130_ef_sc_hd__decap_12
XFILLER_0_26_202 VGND VGND VPWR VPWR sky130_fd_sc_hd__fill_1
XFILLER_0_17_235 VGND VGND VPWR VPWR sky130_fd_sc_hd__fill_1
XFILLER_0_17_279 VGND VGND VPWR VPWR sky130_fd_sc_hd__fill_1
XFILLER_0_7_83 VPWR VGND VPWR VGND sky130_ef_sc_hd__decap_12
XFILLER_0_4_195 VGND VGND VPWR VPWR sky130_fd_sc_hd__fill_1
XFILLER_0_31_293 VPWR VGND VPWR VGND sky130_ef_sc_hd__decap_12
XFILLER_0_13_86 VPWR VGND VPWR VGND sky130_ef_sc_hd__decap_12
XTAP_TAPCELL_ROW_14_163 VGND VPWR sky130_fd_sc_hd__tapvpwrvgnd_1
XFILLER_0_14_227 VGND VGND VPWR VPWR sky130_fd_sc_hd__decap_8
X_0983_ _0984_/A _0984_/B _0984_/C VGND VGND VPWR VPWR _0983_/X sky130_fd_sc_hd__a21o_1
XFILLER_0_14_249 VGND VGND VPWR VPWR sky130_fd_sc_hd__decap_3
XTAP_TAPCELL_ROW_37_288 VGND VPWR sky130_fd_sc_hd__tapvpwrvgnd_1
XFILLER_0_13_260 VGND VGND VPWR VPWR sky130_fd_sc_hd__decap_6
XFILLER_0_13_293 VGND VGND VPWR VPWR sky130_fd_sc_hd__decap_4
XTAP_TAPCELL_ROW_11_144 VGND VPWR sky130_fd_sc_hd__tapvpwrvgnd_1
X_1182_ _1181_/X _1164_/X _1165_/X _1244_/Q VGND VGND VPWR VPWR _1183_/B sky130_fd_sc_hd__a2bb2o_1
XFILLER_0_27_330 VGND VGND VPWR VPWR sky130_fd_sc_hd__decap_4
XFILLER_0_6_224 VPWR VGND VPWR VGND sky130_ef_sc_hd__decap_12
X_0897_ _0938_/A _0896_/C _0896_/A VGND VGND VPWR VPWR _0899_/B sky130_fd_sc_hd__o21ai_1
X_0966_ _0967_/A _0971_/A VGND VGND VPWR VPWR _0968_/A sky130_fd_sc_hd__nand2_1
XFILLER_0_10_285 VGND VGND VPWR VPWR sky130_fd_sc_hd__decap_8
XTAP_TAPCELL_ROW_25_225 VGND VPWR sky130_fd_sc_hd__tapvpwrvgnd_1
XFILLER_0_28_138 VGND VGND VPWR VPWR sky130_fd_sc_hd__fill_2
XFILLER_0_28_116 VGND VGND VPWR VPWR sky130_fd_sc_hd__fill_1
XFILLER_0_36_193 VGND VGND VPWR VPWR sky130_fd_sc_hd__decap_3
XFILLER_0_28_149 VGND VGND VPWR VPWR sky130_fd_sc_hd__fill_2
XFILLER_0_3_249 VPWR VGND VPWR VGND sky130_ef_sc_hd__decap_12
X_0751_ _0750_/B _0750_/C _0750_/A VGND VGND VPWR VPWR _0751_/Y sky130_fd_sc_hd__o21ai_1
X_0820_ _0786_/Y _0819_/X _0683_/X VGND VGND VPWR VPWR _1231_/D sky130_fd_sc_hd__a21boi_1
XTAP_TAPCELL_ROW_0_80 VGND VPWR sky130_fd_sc_hd__tapvpwrvgnd_1
XFILLER_0_19_41 VPWR VGND VPWR VGND sky130_ef_sc_hd__decap_12
X_0682_ _1068_/B _0682_/B VGND VGND VPWR VPWR _0682_/X sky130_fd_sc_hd__or2_1
X_1165_ _1165_/A VGND VGND VPWR VPWR _1165_/X sky130_fd_sc_hd__buf_1
XFILLER_0_35_51 VGND VGND VPWR VPWR sky130_fd_sc_hd__decap_4
X_1234_ _1234_/CLK _1234_/D VGND VGND VPWR VPWR _1234_/Q sky130_fd_sc_hd__dfxtp_1
X_1096_ _1096_/A _1096_/B VGND VGND VPWR VPWR _1098_/A sky130_fd_sc_hd__or2_1
XTAP_TAPCELL_ROW_22_206 VGND VPWR sky130_fd_sc_hd__tapvpwrvgnd_1
XTAP_TAPCELL_ROW_30_250 VGND VPWR sky130_fd_sc_hd__tapvpwrvgnd_1
X_0949_ _0949_/A _0951_/B _0949_/C VGND VGND VPWR VPWR _0949_/X sky130_fd_sc_hd__or3_1
XFILLER_0_15_333 VGND VGND VPWR VPWR sky130_fd_sc_hd__fill_2
XFILLER_0_0_208 VPWR VGND VPWR VGND sky130_ef_sc_hd__decap_12
XFILLER_0_21_325 VGND VGND VPWR VPWR sky130_fd_sc_hd__decap_8
X_0803_ _0800_/X _0801_/X _0767_/B _0797_/X VGND VGND VPWR VPWR _0804_/C sky130_fd_sc_hd__a211o_1
X_0665_ _0956_/B _0682_/B VGND VGND VPWR VPWR _0665_/X sky130_fd_sc_hd__or2_1
X_0734_ _0734_/A VGND VGND VPWR VPWR _1228_/D sky130_fd_sc_hd__clkbuf_1
X_1148_ _1154_/B VGND VGND VPWR VPWR _1155_/B sky130_fd_sc_hd__inv_2
X_1217_ _1131_/X _1215_/Y _1216_/X _0683_/X VGND VGND VPWR VPWR _1250_/D sky130_fd_sc_hd__o211a_1
X_1079_ _1102_/B _1079_/B VGND VGND VPWR VPWR _1081_/C sky130_fd_sc_hd__xnor2_1
XFILLER_0_15_163 VGND VGND VPWR VPWR sky130_fd_sc_hd__decap_4
XFILLER_0_38_299 VGND VGND VPWR VPWR sky130_fd_sc_hd__decap_4
X_1002_ _1064_/A _0960_/B _1003_/D _1066_/A VGND VGND VPWR VPWR _1004_/A sky130_fd_sc_hd__a22oi_1
XFILLER_0_32_85 VGND VGND VPWR VPWR sky130_fd_sc_hd__decap_6
XFILLER_0_32_41 VPWR VGND VPWR VGND sky130_ef_sc_hd__decap_12
XFILLER_0_29_244 VPWR VGND VPWR VGND sky130_ef_sc_hd__decap_12
XFILLER_0_4_333 VGND VGND VPWR VPWR sky130_fd_sc_hd__fill_2
XFILLER_0_12_100 VGND VGND VPWR VPWR sky130_fd_sc_hd__decap_3
XFILLER_0_12_111 VPWR VGND VPWR VGND sky130_ef_sc_hd__decap_12
X_0648_ _0866_/B VGND VGND VPWR VPWR _0649_/A sky130_fd_sc_hd__buf_2
X_0717_ _0717_/A VGND VGND VPWR VPWR _1227_/D sky130_fd_sc_hd__clkbuf_1
XFILLER_0_35_258 VPWR VGND VPWR VGND sky130_ef_sc_hd__decap_12
XFILLER_0_9_3 VPWR VGND VPWR VGND sky130_ef_sc_hd__decap_12
XFILLER_0_11_7 VGND VGND VPWR VPWR sky130_fd_sc_hd__fill_1
XFILLER_0_4_141 VPWR VGND VPWR VGND sky130_ef_sc_hd__decap_12
XFILLER_0_17_225 VGND VGND VPWR VPWR sky130_fd_sc_hd__fill_1
XFILLER_0_7_95 VGND VGND VPWR VPWR sky130_fd_sc_hd__decap_4
XFILLER_0_7_51 VGND VGND VPWR VPWR sky130_fd_sc_hd__decap_4
XFILLER_0_16_291 VGND VGND VPWR VPWR sky130_fd_sc_hd__fill_1
XFILLER_0_13_65 VGND VGND VPWR VPWR sky130_fd_sc_hd__fill_2
XFILLER_0_13_98 VPWR VGND VPWR VGND sky130_ef_sc_hd__decap_12
XTAP_TAPCELL_ROW_14_164 VGND VPWR sky130_fd_sc_hd__tapvpwrvgnd_1
X_0982_ _1056_/B VGND VGND VPWR VPWR _0984_/C sky130_fd_sc_hd__inv_2
XFILLER_0_38_40 VPWR VGND VPWR VGND sky130_ef_sc_hd__decap_12
XFILLER_0_1_111 VGND VGND VPWR VPWR sky130_fd_sc_hd__fill_1
XTAP_TAPCELL_ROW_37_289 VGND VPWR sky130_fd_sc_hd__tapvpwrvgnd_1
XFILLER_0_9_255 VGND VGND VPWR VPWR sky130_fd_sc_hd__fill_1
XTAP_TAPCELL_ROW_11_145 VGND VPWR sky130_fd_sc_hd__tapvpwrvgnd_1
X_1181_ _1172_/A _1178_/Y _1180_/Y _1160_/X VGND VGND VPWR VPWR _1181_/X sky130_fd_sc_hd__o211a_1
X_1250_ _1250_/CLK _1250_/D VGND VGND VPWR VPWR hold2/A sky130_fd_sc_hd__dfxtp_1
XFILLER_0_6_269 VGND VGND VPWR VPWR sky130_fd_sc_hd__fill_2
XFILLER_0_6_236 VGND VGND VPWR VPWR sky130_fd_sc_hd__decap_6
X_0896_ _0896_/A _0938_/A _0896_/C VGND VGND VPWR VPWR _0939_/B sky130_fd_sc_hd__or3_2
X_0965_ _1235_/Q VGND VGND VPWR VPWR _0967_/A sky130_fd_sc_hd__inv_2
XFILLER_0_4_85 VPWR VGND VPWR VGND sky130_ef_sc_hd__decap_12
XFILLER_0_4_41 VPWR VGND VPWR VGND sky130_ef_sc_hd__decap_12
XFILLER_0_10_253 VPWR VGND VPWR VGND sky130_ef_sc_hd__decap_12
XFILLER_0_10_66 VGND VGND VPWR VPWR sky130_fd_sc_hd__decap_6
X_0681_ _1030_/C VGND VGND VPWR VPWR _1068_/B sky130_fd_sc_hd__buf_2
X_0750_ _0750_/A _0750_/B _0750_/C VGND VGND VPWR VPWR _0782_/A sky130_fd_sc_hd__or3_1
XFILLER_0_24_301 VGND VGND VPWR VPWR sky130_fd_sc_hd__decap_6
XFILLER_0_24_334 VGND VGND VPWR VPWR sky130_fd_sc_hd__fill_1
XTAP_TAPCELL_ROW_0_81 VGND VPWR sky130_fd_sc_hd__tapvpwrvgnd_1
XFILLER_0_19_53 VGND VGND VPWR VPWR sky130_fd_sc_hd__decap_3
X_1233_ _1234_/CLK _1233_/D VGND VGND VPWR VPWR _1233_/Q sky130_fd_sc_hd__dfxtp_1
X_1164_ _1164_/A VGND VGND VPWR VPWR _1164_/X sky130_fd_sc_hd__buf_1
X_1095_ _1095_/A _1095_/B VGND VGND VPWR VPWR _1096_/B sky130_fd_sc_hd__nor2_1
XTAP_TAPCELL_ROW_30_251 VGND VPWR sky130_fd_sc_hd__tapvpwrvgnd_1
X_0948_ _0948_/A _0948_/B VGND VGND VPWR VPWR _0980_/B sky130_fd_sc_hd__nand2_1
XFILLER_0_19_117 VGND VGND VPWR VPWR sky130_fd_sc_hd__fill_1
XTAP_TAPCELL_ROW_22_207 VGND VPWR sky130_fd_sc_hd__tapvpwrvgnd_1
X_0879_ _1224_/Q VGND VGND VPWR VPWR _1030_/A sky130_fd_sc_hd__clkbuf_2
XFILLER_0_25_109 VGND VGND VPWR VPWR sky130_fd_sc_hd__decap_3
XFILLER_0_8_309 VPWR VGND VPWR VGND sky130_ef_sc_hd__decap_12
X_0802_ _0767_/B _0797_/X _0800_/X _0801_/X VGND VGND VPWR VPWR _0804_/B sky130_fd_sc_hd__o211ai_2
X_0664_ _0793_/C VGND VGND VPWR VPWR _0956_/B sky130_fd_sc_hd__clkbuf_2
X_0733_ _0860_/A _0733_/B VGND VGND VPWR VPWR _0734_/A sky130_fd_sc_hd__and2_1
XFILLER_0_24_197 VPWR VGND VPWR VGND sky130_ef_sc_hd__decap_12
X_1216_ hold2/X _1128_/B _0698_/X VGND VGND VPWR VPWR _1216_/X sky130_fd_sc_hd__a21o_1
X_1147_ _1172_/A _1147_/B VGND VGND VPWR VPWR _1147_/Y sky130_fd_sc_hd__nand2_1
X_1078_ _1035_/A _1035_/B _1077_/Y VGND VGND VPWR VPWR _1079_/B sky130_fd_sc_hd__a21oi_1
XFILLER_0_30_145 VGND VGND VPWR VPWR sky130_fd_sc_hd__decap_8
XFILLER_0_38_278 VGND VGND VPWR VPWR sky130_fd_sc_hd__fill_2
XFILLER_0_38_223 VGND VGND VPWR VPWR sky130_fd_sc_hd__fill_1
XFILLER_0_38_201 VGND VGND VPWR VPWR sky130_fd_sc_hd__decap_4
XFILLER_0_21_167 VGND VGND VPWR VPWR sky130_fd_sc_hd__fill_1
XFILLER_0_8_106 VPWR VGND VPWR VGND sky130_ef_sc_hd__decap_12
X_1001_ _1001_/A _1001_/B VGND VGND VPWR VPWR _1008_/A sky130_fd_sc_hd__nand2_1
XFILLER_0_32_53 VPWR VGND VPWR VGND sky130_ef_sc_hd__decap_12
XFILLER_0_29_256 VPWR VGND VPWR VGND sky130_ef_sc_hd__decap_12
XFILLER_0_4_301 VGND VGND VPWR VPWR sky130_fd_sc_hd__decap_6
XFILLER_0_12_123 VGND VGND VPWR VPWR sky130_fd_sc_hd__decap_4
X_0647_ _1218_/Q VGND VGND VPWR VPWR _0866_/B sky130_fd_sc_hd__clkbuf_2
X_0716_ _0860_/A _0716_/B VGND VGND VPWR VPWR _0717_/A sky130_fd_sc_hd__and2_1
XFILLER_0_32_3 VPWR VGND VPWR VGND sky130_ef_sc_hd__decap_12
XFILLER_0_35_204 VGND VGND VPWR VPWR sky130_fd_sc_hd__fill_1
Xoutput12 _0608_/X VGND VGND VPWR VPWR uo_out[0] sky130_fd_sc_hd__buf_2
XFILLER_0_7_63 VPWR VGND VPWR VGND sky130_ef_sc_hd__decap_12
XFILLER_0_4_197 VGND VGND VPWR VPWR sky130_fd_sc_hd__fill_1
XFILLER_0_4_153 VPWR VGND VPWR VGND sky130_ef_sc_hd__decap_12
XTAP_TAPCELL_ROW_8_130 VGND VPWR sky130_fd_sc_hd__tapvpwrvgnd_1
X_0981_ _0981_/A _0981_/B VGND VGND VPWR VPWR _1056_/B sky130_fd_sc_hd__and2_1
XTAP_TAPCELL_ROW_14_165 VGND VPWR sky130_fd_sc_hd__tapvpwrvgnd_1
XFILLER_0_38_85 VPWR VGND VPWR VGND sky130_ef_sc_hd__decap_12
XFILLER_0_38_52 VGND VGND VPWR VPWR sky130_fd_sc_hd__decap_4