*SPEF "ieee 1481-1999"
*DESIGN "tt_um_lightrail_nce"
*DATE "18:14:31 Wednesday June 17, 2026"
*VENDOR "The OpenROAD Project"
*PROGRAM "OpenROAD"
*VERSION "0889970d1790a2617e69f253221b8bd7626e51dc"
*DESIGN_FLOW "NAME_SCOPE LOCAL" "PIN_CAP NONE"
*DIVIDER /
*DELIMITER :
*BUS_DELIMITER []
*T_UNIT 1 NS
*C_UNIT 1 PF
*R_UNIT 1 OHM
*L_UNIT 1 HENRY

*NAME_MAP
*3 clk
*4 ena
*5 rst_n
*6 ui_in[0]
*7 ui_in[1]
*8 ui_in[2]
*9 ui_in[3]
*10 ui_in[4]
*11 ui_in[5]
*12 ui_in[6]
*13 ui_in[7]
*14 uio_in[0]
*15 uio_in[1]
*16 uio_in[2]
*17 uio_in[3]
*18 uio_in[4]
*19 uio_in[5]
*20 uio_in[6]
*21 uio_in[7]
*22 net20
*23 net21
*24 net22
*25 net23
*26 net24
*27 net25
*28 net26
*29 net27
*30 net28
*31 net29
*32 net30
*33 net31
*34 net32
*35 net33
*36 net34
*37 net35
*38 uo_out[0]
*39 uo_out[1]
*40 uo_out[2]
*41 uo_out[3]
*42 uo_out[4]
*43 uo_out[5]
*44 uo_out[6]
*45 uo_out[7]
*46 _0000_
*47 _0001_
*48 _0002_
*49 _0003_
*50 _0004_
*51 _0005_
*52 _0006_
*53 _0007_
*54 _0008_
*55 _0009_
*56 _0010_
*57 _0011_
*58 _0012_
*59 _0013_
*60 _0014_
*61 _0015_
*62 _0016_
*63 _0017_
*64 _0018_
*65 _0019_
*66 _0020_
*67 _0021_
*68 _0022_
*69 _0023_
*70 _0024_
*71 _0025_
*72 _0026_
*73 _0027_
*74 _0028_
*75 _0029_
*76 _0030_
*77 _0031_
*78 _0032_
*79 _0033_
*80 _0034_
*81 _0035_
*82 _0036_
*83 _0037_
*84 _0038_
*85 _0039_
*86 _0040_
*87 _0041_
*88 _0042_
*89 _0043_
*90 _0044_
*91 _0045_
*92 _0046_
*93 _0047_
*94 _0048_
*95 _0049_
*96 _0050_
*97 _0051_
*98 _0052_
*99 _0053_
*100 _0054_
*101 _0055_
*102 _0056_
*103 _0057_
*104 _0058_
*105 _0059_
*106 _0060_
*107 _0061_
*108 _0062_
*109 _0063_
*110 _0064_
*111 _0065_
*112 _0066_
*113 _0067_
*114 _0068_
*115 _0069_
*116 _0070_
*117 _0071_
*118 _0072_
*119 _0073_
*120 _0074_
*121 _0075_
*122 _0076_
*123 _0077_
*124 _0078_
*125 _0079_
*126 _0080_
*127 _0081_
*128 _0082_
*129 _0083_
*130 _0084_
*131 _0085_
*132 _0086_
*133 _0087_
*134 _0088_
*135 _0089_
*136 _0090_
*137 _0091_
*138 _0092_
*139 _0093_
*140 _0094_
*141 _0095_
*142 _0096_
*143 _0097_
*144 _0098_
*145 _0099_
*146 _0100_
*147 _0101_
*148 _0102_
*149 _0103_
*150 _0104_
*151 _0105_
*152 _0106_
*153 _0107_
*154 _0108_
*155 _0109_
*156 _0110_
*157 _0111_
*158 _0112_
*159 _0113_
*160 _0114_
*161 _0115_
*162 _0116_
*163 _0117_
*164 _0118_
*165 _0119_
*166 _0120_
*167 _0121_
*168 _0122_
*169 _0123_
*170 _0124_
*171 _0125_
*172 _0126_
*173 _0127_
*174 _0128_
*175 _0129_
*176 _0130_
*177 _0131_
*178 _0132_
*179 _0133_
*180 _0134_
*181 _0135_
*182 _0136_
*183 _0137_
*184 _0138_
*185 _0139_
*186 _0140_
*187 _0141_
*188 _0142_
*189 _0143_
*190 _0144_
*191 _0145_
*192 _0146_
*193 _0147_
*194 _0148_
*195 _0149_
*196 _0150_
*197 _0151_
*198 _0152_
*199 _0153_
*200 _0154_
*201 _0155_
*202 _0156_
*203 _0157_
*204 _0158_
*205 _0159_
*206 _0160_
*207 _0161_
*208 _0162_
*209 _0163_
*210 _0164_
*211 _0165_
*212 _0166_
*213 _0167_
*214 _0168_
*215 _0169_
*216 _0170_
*217 _0171_
*218 _0172_
*219 _0173_
*220 _0174_
*221 _0175_
*222 _0176_
*223 _0177_
*224 _0178_
*225 _0179_
*226 _0180_
*227 _0181_
*228 _0182_
*229 _0183_
*230 _0184_
*231 _0185_
*232 _0186_
*233 _0187_
*234 _0188_
*235 _0189_
*236 _0190_
*237 _0191_
*238 _0192_
*239 _0193_
*240 _0194_
*241 _0195_
*242 _0196_
*243 _0197_
*244 _0198_
*245 _0199_
*246 _0200_
*247 _0201_
*248 _0202_
*249 _0203_
*250 _0204_
*251 _0205_
*252 _0206_
*253 _0207_
*254 _0208_
*255 _0209_
*256 _0210_
*257 _0211_
*258 _0212_
*259 _0213_
*260 _0214_
*261 _0215_
*262 _0216_
*263 _0217_
*264 _0218_
*265 _0219_
*266 _0220_
*267 _0221_
*268 _0222_
*269 _0223_
*270 _0224_
*271 _0225_
*272 _0226_
*273 _0227_
*274 _0228_
*275 _0229_
*276 _0230_
*277 _0231_
*278 _0232_
*279 _0233_
*280 _0234_
*281 _0235_
*282 _0236_
*283 _0237_
*284 _0238_
*285 _0239_
*286 _0240_
*287 _0241_
*288 _0242_
*289 _0243_
*290 _0244_
*291 _0245_
*292 _0246_
*293 _0247_
*294 _0248_
*295 _0249_
*296 _0250_
*297 _0251_
*298 _0252_
*299 _0253_
*300 _0254_
*301 _0255_
*302 _0256_
*303 _0257_
*304 _0258_
*305 _0259_
*306 _0260_
*307 _0261_
*308 _0262_
*309 _0263_
*310 _0264_
*311 _0265_
*312 _0266_
*313 _0267_
*314 _0268_
*315 _0269_
*316 _0270_
*317 _0271_
*318 _0272_
*319 _0273_
*320 _0274_
*321 _0275_
*322 _0276_
*323 _0277_
*324 _0278_
*325 _0279_
*326 _0280_
*327 _0281_
*328 _0282_
*329 _0283_
*330 _0284_
*331 _0285_
*332 _0286_
*333 _0287_
*334 _0288_
*335 _0289_
*336 _0290_
*337 _0291_
*338 _0292_
*339 _0293_
*340 _0294_
*341 _0295_
*342 _0296_
*343 _0297_
*344 _0298_
*345 _0299_
*346 _0300_
*347 _0301_
*348 _0302_
*349 _0303_
*350 _0304_
*351 _0305_
*352 _0306_
*353 _0307_
*354 _0308_
*355 _0309_
*356 _0310_
*357 _0311_
*358 _0312_
*359 _0313_
*360 _0314_
*361 _0315_
*362 _0316_
*363 _0317_
*364 _0318_
*365 _0319_
*366 _0320_
*367 _0321_
*368 _0322_
*369 _0323_
*370 _0324_
*371 _0325_
*372 _0326_
*373 _0327_
*374 _0328_
*375 _0329_
*376 _0330_
*377 _0331_
*378 _0332_
*379 _0333_
*380 _0334_
*381 _0335_
*382 _0336_
*383 _0337_
*384 _0338_
*385 _0339_
*386 _0340_
*387 _0341_
*388 _0342_
*389 _0343_
*390 _0344_
*391 _0345_
*392 _0346_
*393 _0347_
*394 _0348_
*395 _0349_
*396 _0350_
*397 _0351_
*398 _0352_
*399 _0353_
*400 _0354_
*401 _0355_
*402 _0356_
*403 _0357_
*404 _0358_
*405 _0359_
*406 _0360_
*407 _0361_
*408 _0362_
*409 _0363_
*410 _0364_
*411 _0365_
*412 _0366_
*413 _0367_
*414 _0368_
*415 _0369_
*416 _0370_
*417 _0371_
*418 _0372_
*419 _0373_
*420 _0374_
*421 _0375_
*422 _0376_
*423 _0377_
*424 _0378_
*425 _0379_
*426 _0380_
*427 _0381_
*428 _0382_
*429 _0383_
*430 _0384_
*431 _0385_
*432 _0386_
*433 _0387_
*434 _0388_
*435 _0389_
*436 _0390_
*437 _0391_
*438 _0392_
*439 _0393_
*440 _0394_
*441 _0395_
*442 _0396_
*443 _0397_
*444 _0398_
*445 _0399_
*446 _0400_
*447 _0401_
*448 _0402_
*449 _0403_
*450 _0404_
*451 _0405_
*452 _0406_
*453 _0407_
*454 _0408_
*455 _0409_
*456 _0410_
*457 _0411_
*458 _0412_
*459 _0413_
*460 _0414_
*461 _0415_
*462 _0416_
*463 _0417_
*464 _0418_
*465 _0419_
*466 _0420_
*467 _0421_
*468 _0422_
*469 _0423_
*470 _0424_
*471 _0425_
*472 _0426_
*473 _0427_
*474 _0428_
*475 _0429_
*476 _0430_
*477 _0431_
*478 _0432_
*479 _0433_
*480 _0434_
*481 _0435_
*482 _0436_
*483 _0437_
*484 _0438_
*485 _0439_
*486 _0440_
*487 _0441_
*488 _0442_
*489 _0443_
*490 _0444_
*491 _0445_
*492 _0446_
*493 _0447_
*494 _0448_
*495 _0449_
*496 _0450_
*497 _0451_
*498 _0452_
*499 _0453_
*500 _0454_
*501 _0455_
*502 _0456_
*503 _0457_
*504 _0458_
*505 _0459_
*506 _0460_
*507 _0461_
*508 _0462_
*509 _0463_
*510 _0464_
*511 _0465_
*512 _0466_
*513 _0467_
*514 _0468_
*515 _0469_
*516 _0470_
*517 _0471_
*518 _0472_
*519 _0473_
*520 _0474_
*521 _0475_
*522 _0476_
*523 _0477_
*524 _0478_
*525 _0479_
*526 _0480_
*527 _0481_
*528 _0482_
*529 _0483_
*530 _0484_
*531 _0485_
*532 _0486_
*533 _0487_
*534 _0488_
*535 _0489_
*536 _0490_
*537 _0491_
*538 _0492_
*539 _0493_
*540 _0494_
*541 _0495_
*542 _0496_
*543 _0497_
*544 _0498_
*545 _0499_
*546 _0500_
*547 _0501_
*548 _0502_
*549 _0503_
*550 _0504_
*551 _0505_
*552 _0506_
*553 _0507_
*554 _0508_
*555 _0509_
*556 _0510_
*557 _0511_
*558 _0512_
*559 _0513_
*560 _0514_
*561 _0515_
*562 _0516_
*563 _0517_
*564 _0518_
*565 _0519_
*566 _0520_
*567 _0521_
*568 _0522_
*569 _0523_
*570 _0524_
*571 _0525_
*572 _0526_
*573 _0527_
*574 _0528_
*575 _0529_
*576 _0530_
*577 _0531_
*578 _0532_
*579 _0533_
*580 _0534_
*581 _0535_
*582 _0536_
*583 _0537_
*584 _0538_
*585 _0539_
*586 _0540_
*587 _0541_
*588 _0542_
*589 _0543_
*590 _0544_
*591 _0545_
*592 _0546_
*593 _0547_
*594 _0548_
*595 _0549_
*596 _0550_
*597 _0551_
*598 _0552_
*599 _0553_
*600 _0554_
*601 _0555_
*602 _0556_
*603 _0557_
*604 _0558_
*605 _0559_
*606 _0560_
*607 _0561_
*608 _0562_
*609 _0563_
*610 _0564_
*611 _0565_
*612 _0566_
*613 _0567_
*614 _0568_
*615 _0569_
*616 _0570_
*617 _0571_
*618 _0572_
*619 _0573_
*620 _0574_
*621 _0575_
*622 _0576_
*623 _0577_
*624 _0578_
*625 _0579_
*626 _0580_
*627 _0581_
*628 _0582_
*629 _0583_
*630 _0584_
*631 _0585_
*632 _0586_
*633 _0587_
*634 _0588_
*635 _0589_
*636 _0590_
*637 _0591_
*638 _0592_
*639 _0593_
*640 _0594_
*641 _0595_
*642 _0596_
*643 _0597_
*644 _0598_
*645 _0599_
*646 _0600_
*647 _0601_
*648 _0602_
*649 _0603_
*650 _0604_
*651 accumulator\[0\]
*652 accumulator\[10\]
*653 accumulator\[11\]
*654 accumulator\[12\]
*655 accumulator\[13\]
*656 accumulator\[14\]
*657 accumulator\[15\]
*658 accumulator\[1\]
*659 accumulator\[2\]
*660 accumulator\[3\]
*661 accumulator\[4\]
*662 accumulator\[5\]
*663 accumulator\[6\]
*664 accumulator\[7\]
*665 accumulator\[8\]
*666 accumulator\[9\]
*667 clknet_0_clk
*668 clknet_2_0__leaf_clk
*669 clknet_2_1__leaf_clk
*670 clknet_2_2__leaf_clk
*671 clknet_2_3__leaf_clk
*672 net1
*673 net10
*674 net11
*675 net12
*676 net13
*677 net14
*678 net15
*679 net16
*680 net17
*681 net18
*682 net19
*683 net2
*684 net3
*685 net36
*686 net37
*687 net4
*688 net5
*689 net6
*690 net7
*691 net8
*692 net9
*693 overflow
*694 reg_a\[0\]
*695 reg_a\[1\]
*696 reg_a\[2\]
*697 reg_a\[3\]
*698 reg_a\[4\]
*699 reg_a\[5\]
*700 reg_a\[6\]
*701 reg_a\[7\]
*702 result\[0\]
*703 result\[1\]
*704 result\[2\]
*705 result\[3\]
*706 result\[4\]
*707 result\[5\]
*708 result\[6\]
*709 result\[7\]
*710 ANTENNA_1
*711 FILLER_0_0_103
*712 FILLER_0_0_111
*713 FILLER_0_0_113
*714 FILLER_0_0_125
*715 FILLER_0_0_131
*716 FILLER_0_0_139
*717 FILLER_0_0_141
*718 FILLER_0_0_15
*719 FILLER_0_0_153
*720 FILLER_0_0_165
*721 FILLER_0_0_169
*722 FILLER_0_0_173
*723 FILLER_0_0_180
*724 FILLER_0_0_187
*725 FILLER_0_0_194
*726 FILLER_0_0_197
*727 FILLER_0_0_201
*728 FILLER_0_0_208
*729 FILLER_0_0_220
*730 FILLER_0_0_225
*731 FILLER_0_0_237
*732 FILLER_0_0_249
*733 FILLER_0_0_253
*734 FILLER_0_0_265
*735 FILLER_0_0_27
*736 FILLER_0_0_277
*737 FILLER_0_0_281
*738 FILLER_0_0_29
*739 FILLER_0_0_293
*740 FILLER_0_0_3
*741 FILLER_0_0_305
*742 FILLER_0_0_309
*743 FILLER_0_0_321
*744 FILLER_0_0_333
*745 FILLER_0_0_41
*746 FILLER_0_0_53
*747 FILLER_0_0_57
*748 FILLER_0_0_69
*749 FILLER_0_0_81
*750 FILLER_0_0_85
*751 FILLER_0_0_97
*752 FILLER_0_10_101
*753 FILLER_0_10_126
*754 FILLER_0_10_134
*755 FILLER_0_10_15
*756 FILLER_0_10_151
*757 FILLER_0_10_168
*758 FILLER_0_10_187
*759 FILLER_0_10_195
*760 FILLER_0_10_197
*761 FILLER_0_10_221
*762 FILLER_0_10_233
*763 FILLER_0_10_237
*764 FILLER_0_10_248
*765 FILLER_0_10_253
*766 FILLER_0_10_265
*767 FILLER_0_10_27
*768 FILLER_0_10_273
*769 FILLER_0_10_285
*770 FILLER_0_10_29
*771 FILLER_0_10_293
*772 FILLER_0_10_3
*773 FILLER_0_10_301
*774 FILLER_0_10_309
*775 FILLER_0_10_321
*776 FILLER_0_10_333
*777 FILLER_0_10_41
*778 FILLER_0_10_53
*779 FILLER_0_10_61
*780 FILLER_0_10_66
*781 FILLER_0_10_85
*782 FILLER_0_10_97
*783 FILLER_0_11_107
*784 FILLER_0_11_111
*785 FILLER_0_11_123
*786 FILLER_0_11_139
*787 FILLER_0_11_149
*788 FILLER_0_11_165
*789 FILLER_0_11_169
*790 FILLER_0_11_184
*791 FILLER_0_11_196
*792 FILLER_0_11_203
*793 FILLER_0_11_220
*794 FILLER_0_11_234
*795 FILLER_0_11_246
*796 FILLER_0_11_258
*797 FILLER_0_11_27
*798 FILLER_0_11_270
*799 FILLER_0_11_284
*800 FILLER_0_11_3
*801 FILLER_0_11_314
*802 FILLER_0_11_320
*803 FILLER_0_11_332
*804 FILLER_0_11_42
*805 FILLER_0_11_54
*806 FILLER_0_11_57
*807 FILLER_0_11_61
*808 FILLER_0_11_66
*809 FILLER_0_11_7
*810 FILLER_0_11_72
*811 FILLER_0_11_89
*812 FILLER_0_11_97
*813 FILLER_0_12_100
*814 FILLER_0_12_111
*815 FILLER_0_12_123
*816 FILLER_0_12_137
*817 FILLER_0_12_149
*818 FILLER_0_12_15
*819 FILLER_0_12_165
*820 FILLER_0_12_172
*821 FILLER_0_12_176
*822 FILLER_0_12_180
*823 FILLER_0_12_192
*824 FILLER_0_12_197
*825 FILLER_0_12_228
*826 FILLER_0_12_232
*827 FILLER_0_12_240
*828 FILLER_0_12_27
*829 FILLER_0_12_278
*830 FILLER_0_12_29
*831 FILLER_0_12_290
*832 FILLER_0_12_3
*833 FILLER_0_12_302
*834 FILLER_0_12_312
*835 FILLER_0_12_332
*836 FILLER_0_12_35
*837 FILLER_0_12_39
*838 FILLER_0_12_53
*839 FILLER_0_12_65
*840 FILLER_0_12_7
*841 FILLER_0_12_72
*842 FILLER_0_12_92
*843 FILLER_0_13_110
*844 FILLER_0_13_113
*845 FILLER_0_13_123
*846 FILLER_0_13_127
*847 FILLER_0_13_15
*848 FILLER_0_13_153
*849 FILLER_0_13_164
*850 FILLER_0_13_177
*851 FILLER_0_13_189
*852 FILLER_0_13_201
*853 FILLER_0_13_221
*854 FILLER_0_13_225
*855 FILLER_0_13_237
*856 FILLER_0_13_249
*857 FILLER_0_13_260
*858 FILLER_0_13_269
*859 FILLER_0_13_27
*860 FILLER_0_13_277
*861 FILLER_0_13_281
*862 FILLER_0_13_293
*863 FILLER_0_13_3
*864 FILLER_0_13_311
*865 FILLER_0_13_325
*866 FILLER_0_13_333
*867 FILLER_0_13_37
*868 FILLER_0_13_57
*869 FILLER_0_13_65
*870 FILLER_0_13_86
*871 FILLER_0_13_98
*872 FILLER_0_14_102
*873 FILLER_0_14_125
*874 FILLER_0_14_133
*875 FILLER_0_14_139
*876 FILLER_0_14_141
*877 FILLER_0_14_147
*878 FILLER_0_14_163
*879 FILLER_0_14_171
*880 FILLER_0_14_177
*881 FILLER_0_14_18
*882 FILLER_0_14_187
*883 FILLER_0_14_194
*884 FILLER_0_14_201
*885 FILLER_0_14_227
*886 FILLER_0_14_249
*887 FILLER_0_14_253
*888 FILLER_0_14_272
*889 FILLER_0_14_280
*890 FILLER_0_14_288
*891 FILLER_0_14_3
*892 FILLER_0_14_319
*893 FILLER_0_14_331
*894 FILLER_0_14_35
*895 FILLER_0_14_47
*896 FILLER_0_14_60
*897 FILLER_0_14_72
*898 FILLER_0_14_83
*899 FILLER_0_14_98
*900 FILLER_0_15_100
*901 FILLER_0_15_11
*902 FILLER_0_15_113
*903 FILLER_0_15_122
*904 FILLER_0_15_139
*905 FILLER_0_15_151
*906 FILLER_0_15_163
*907 FILLER_0_15_167
*908 FILLER_0_15_169
*909 FILLER_0_15_181
*910 FILLER_0_15_188
*911 FILLER_0_15_208
*912 FILLER_0_15_220
*913 FILLER_0_15_225
*914 FILLER_0_15_231
*915 FILLER_0_15_242
*916 FILLER_0_15_250
*917 FILLER_0_15_255
*918 FILLER_0_15_267
*919 FILLER_0_15_27
*920 FILLER_0_15_279
*921 FILLER_0_15_294
*922 FILLER_0_15_3
*923 FILLER_0_15_310
*924 FILLER_0_15_316
*925 FILLER_0_15_325
*926 FILLER_0_15_33
*927 FILLER_0_15_333
*928 FILLER_0_15_41
*929 FILLER_0_15_53
*930 FILLER_0_15_57
*931 FILLER_0_15_72
*932 FILLER_0_15_88
*933 FILLER_0_16_103
*934 FILLER_0_16_115
*935 FILLER_0_16_127
*936 FILLER_0_16_139
*937 FILLER_0_16_148
*938 FILLER_0_16_156
*939 FILLER_0_16_163
*940 FILLER_0_16_17
*941 FILLER_0_16_184
*942 FILLER_0_16_197
*943 FILLER_0_16_216
*944 FILLER_0_16_224
*945 FILLER_0_16_244
*946 FILLER_0_16_253
*947 FILLER_0_16_26
*948 FILLER_0_16_261
*949 FILLER_0_16_273
*950 FILLER_0_16_285
*951 FILLER_0_16_291
*952 FILLER_0_16_3
*953 FILLER_0_16_302
*954 FILLER_0_16_309
*955 FILLER_0_16_321
*956 FILLER_0_16_333
*957 FILLER_0_16_35
*958 FILLER_0_16_47
*959 FILLER_0_16_56
*960 FILLER_0_16_80
*961 FILLER_0_16_85
*962 FILLER_0_16_9
*963 FILLER_0_16_93
*964 FILLER_0_17_101
*965 FILLER_0_17_110
*966 FILLER_0_17_113
*967 FILLER_0_17_125
*968 FILLER_0_17_15
*969 FILLER_0_17_150
*970 FILLER_0_17_154
*971 FILLER_0_17_177
*972 FILLER_0_17_181
*973 FILLER_0_17_198
*974 FILLER_0_17_208
*975 FILLER_0_17_220
*976 FILLER_0_17_225
*977 FILLER_0_17_229
*978 FILLER_0_17_235
*979 FILLER_0_17_239
*980 FILLER_0_17_25
*981 FILLER_0_17_279
*982 FILLER_0_17_281
*983 FILLER_0_17_293
*984 FILLER_0_17_3
*985 FILLER_0_17_305
*986 FILLER_0_17_328
*987 FILLER_0_17_334
*988 FILLER_0_17_37
*989 FILLER_0_17_41
*990 FILLER_0_17_46
*991 FILLER_0_17_57
*992 FILLER_0_17_68
*993 FILLER_0_17_77
*994 FILLER_0_17_89
*995 FILLER_0_17_95
*996 FILLER_0_18_103
*997 FILLER_0_18_115
*998 FILLER_0_18_123
*999 FILLER_0_18_138
*1000 FILLER_0_18_15
*1001 FILLER_0_18_157
*1002 FILLER_0_18_169
*1003 FILLER_0_18_179
*1004 FILLER_0_18_191
*1005 FILLER_0_18_195
*1006 FILLER_0_18_197
*1007 FILLER_0_18_209
*1008 FILLER_0_18_217
*1009 FILLER_0_18_229
*1010 FILLER_0_18_24
*1011 FILLER_0_18_241
*1012 FILLER_0_18_249
*1013 FILLER_0_18_253
*1014 FILLER_0_18_257
*1015 FILLER_0_18_263
*1016 FILLER_0_18_293
*1017 FILLER_0_18_3
*1018 FILLER_0_18_305
*1019 FILLER_0_18_309
*1020 FILLER_0_18_313
*1021 FILLER_0_18_334
*1022 FILLER_0_18_35
*1023 FILLER_0_18_47
*1024 FILLER_0_18_53
*1025 FILLER_0_18_68
*1026 FILLER_0_18_80
*1027 FILLER_0_18_85
*1028 FILLER_0_19_111
*1029 FILLER_0_19_113
*1030 FILLER_0_19_117
*1031 FILLER_0_19_147
*1032 FILLER_0_19_15
*1033 FILLER_0_19_159
*1034 FILLER_0_19_163
*1035 FILLER_0_19_169
*1036 FILLER_0_19_179
*1037 FILLER_0_19_191
*1038 FILLER_0_19_203
*1039 FILLER_0_19_21
*1040 FILLER_0_19_215
*1041 FILLER_0_19_225
*1042 FILLER_0_19_237
*1043 FILLER_0_19_249
*1044 FILLER_0_19_257
*1045 FILLER_0_19_264
*1046 FILLER_0_19_279
*1047 FILLER_0_19_281
*1048 FILLER_0_19_29
*1049 FILLER_0_19_293
*1050 FILLER_0_19_3
*1051 FILLER_0_19_313
*1052 FILLER_0_19_317
*1053 FILLER_0_19_326
*1054 FILLER_0_19_334
*1055 FILLER_0_19_41
*1056 FILLER_0_19_53
*1057 FILLER_0_19_57
*1058 FILLER_0_19_69
*1059 FILLER_0_19_79
*1060 FILLER_0_19_87
*1061 FILLER_0_1_105
*1062 FILLER_0_1_111
*1063 FILLER_0_1_113
*1064 FILLER_0_1_125
*1065 FILLER_0_1_137
*1066 FILLER_0_1_149
*1067 FILLER_0_1_15
*1068 FILLER_0_1_161
*1069 FILLER_0_1_167
*1070 FILLER_0_1_169
*1071 FILLER_0_1_181
*1072 FILLER_0_1_193
*1073 FILLER_0_1_205
*1074 FILLER_0_1_217
*1075 FILLER_0_1_223
*1076 FILLER_0_1_225
*1077 FILLER_0_1_237
*1078 FILLER_0_1_249
*1079 FILLER_0_1_261
*1080 FILLER_0_1_27
*1081 FILLER_0_1_273
*1082 FILLER_0_1_279
*1083 FILLER_0_1_281
*1084 FILLER_0_1_293
*1085 FILLER_0_1_3
*1086 FILLER_0_1_305
*1087 FILLER_0_1_317
*1088 FILLER_0_1_329
*1089 FILLER_0_1_39
*1090 FILLER_0_1_51
*1091 FILLER_0_1_55
*1092 FILLER_0_1_57
*1093 FILLER_0_1_69
*1094 FILLER_0_1_81
*1095 FILLER_0_1_93
*1096 FILLER_0_20_101
*1097 FILLER_0_20_113
*1098 FILLER_0_20_125
*1099 FILLER_0_20_137
*1100 FILLER_0_20_141
*1101 FILLER_0_20_147
*1102 FILLER_0_20_15
*1103 FILLER_0_20_159
*1104 FILLER_0_20_183
*1105 FILLER_0_20_19
*1106 FILLER_0_20_195
*1107 FILLER_0_20_218
*1108 FILLER_0_20_231
*1109 FILLER_0_20_246
*1110 FILLER_0_20_257
*1111 FILLER_0_20_262
*1112 FILLER_0_20_27
*1113 FILLER_0_20_270
*1114 FILLER_0_20_275
*1115 FILLER_0_20_283
*1116 FILLER_0_20_294
*1117 FILLER_0_20_3
*1118 FILLER_0_20_304
*1119 FILLER_0_20_313
*1120 FILLER_0_20_325
*1121 FILLER_0_20_333
*1122 FILLER_0_20_44
*1123 FILLER_0_20_56
*1124 FILLER_0_20_68
*1125 FILLER_0_20_80
*1126 FILLER_0_20_85
*1127 FILLER_0_21_102
*1128 FILLER_0_21_110
*1129 FILLER_0_21_113
*1130 FILLER_0_21_119
*1131 FILLER_0_21_125
*1132 FILLER_0_21_15
*1133 FILLER_0_21_151
*1134 FILLER_0_21_163
*1135 FILLER_0_21_167
*1136 FILLER_0_21_182
*1137 FILLER_0_21_194
*1138 FILLER_0_21_208
*1139 FILLER_0_21_218
*1140 FILLER_0_21_23
*1141 FILLER_0_21_232
*1142 FILLER_0_21_244
*1143 FILLER_0_21_265
*1144 FILLER_0_21_278
*1145 FILLER_0_21_281
*1146 FILLER_0_21_287
*1147 FILLER_0_21_29
*1148 FILLER_0_21_3
*1149 FILLER_0_21_325
*1150 FILLER_0_21_333
*1151 FILLER_0_21_38
*1152 FILLER_0_21_50
*1153 FILLER_0_21_73
*1154 FILLER_0_21_77
*1155 FILLER_0_21_92
*1156 FILLER_0_22_105
*1157 FILLER_0_22_111
*1158 FILLER_0_22_133
*1159 FILLER_0_22_139
*1160 FILLER_0_22_141
*1161 FILLER_0_22_15
*1162 FILLER_0_22_153
*1163 FILLER_0_22_179
*1164 FILLER_0_22_191
*1165 FILLER_0_22_195
*1166 FILLER_0_22_197
*1167 FILLER_0_22_205
*1168 FILLER_0_22_221
*1169 FILLER_0_22_233
*1170 FILLER_0_22_245
*1171 FILLER_0_22_253
*1172 FILLER_0_22_257
*1173 FILLER_0_22_267
*1174 FILLER_0_22_27
*1175 FILLER_0_22_275
*1176 FILLER_0_22_3
*1177 FILLER_0_22_300
*1178 FILLER_0_22_309
*1179 FILLER_0_22_32
*1180 FILLER_0_22_321
*1181 FILLER_0_22_333
*1182 FILLER_0_22_44
*1183 FILLER_0_22_48
*1184 FILLER_0_22_60
*1185 FILLER_0_22_72
*1186 FILLER_0_22_82
*1187 FILLER_0_22_88
*1188 FILLER_0_22_93
*1189 FILLER_0_23_107
*1190 FILLER_0_23_11
*1191 FILLER_0_23_111
*1192 FILLER_0_23_113
*1193 FILLER_0_23_120
*1194 FILLER_0_23_144
*1195 FILLER_0_23_148
*1196 FILLER_0_23_157
*1197 FILLER_0_23_166
*1198 FILLER_0_23_178
*1199 FILLER_0_23_190
*1200 FILLER_0_23_202
*1201 FILLER_0_23_230
*1202 FILLER_0_23_242
*1203 FILLER_0_23_264
*1204 FILLER_0_23_276
*1205 FILLER_0_23_281
*1206 FILLER_0_23_293
*1207 FILLER_0_23_3
*1208 FILLER_0_23_305
*1209 FILLER_0_23_329
*1210 FILLER_0_23_46
*1211 FILLER_0_23_54
*1212 FILLER_0_23_65
*1213 FILLER_0_23_77
*1214 FILLER_0_23_83
*1215 FILLER_0_24_105
*1216 FILLER_0_24_117
*1217 FILLER_0_24_125
*1218 FILLER_0_24_137
*1219 FILLER_0_24_15
*1220 FILLER_0_24_171
*1221 FILLER_0_24_183
*1222 FILLER_0_24_19
*1223 FILLER_0_24_195
*1224 FILLER_0_24_197
*1225 FILLER_0_24_209
*1226 FILLER_0_24_217
*1227 FILLER_0_24_225
*1228 FILLER_0_24_249
*1229 FILLER_0_24_253
*1230 FILLER_0_24_265
*1231 FILLER_0_24_277
*1232 FILLER_0_24_289
*1233 FILLER_0_24_3
*1234 FILLER_0_24_301
*1235 FILLER_0_24_307
*1236 FILLER_0_24_314
*1237 FILLER_0_24_328
*1238 FILLER_0_24_334
*1239 FILLER_0_24_34
*1240 FILLER_0_24_46
*1241 FILLER_0_24_58
*1242 FILLER_0_24_65
*1243 FILLER_0_24_77
*1244 FILLER_0_24_83
*1245 FILLER_0_24_93
*1246 FILLER_0_25_103
*1247 FILLER_0_25_109
*1248 FILLER_0_25_116
*1249 FILLER_0_25_124
*1250 FILLER_0_25_141
*1251 FILLER_0_25_15
*1252 FILLER_0_25_155
*1253 FILLER_0_25_159
*1254 FILLER_0_25_163
*1255 FILLER_0_25_167
*1256 FILLER_0_25_175
*1257 FILLER_0_25_192
*1258 FILLER_0_25_204
*1259 FILLER_0_25_212
*1260 FILLER_0_25_223
*1261 FILLER_0_25_225
*1262 FILLER_0_25_23
*1263 FILLER_0_25_233
*1264 FILLER_0_25_245
*1265 FILLER_0_25_257
*1266 FILLER_0_25_263
*1267 FILLER_0_25_27
*1268 FILLER_0_25_275
*1269 FILLER_0_25_279
*1270 FILLER_0_25_297
*1271 FILLER_0_25_3
*1272 FILLER_0_25_309
*1273 FILLER_0_25_321
*1274 FILLER_0_25_333
*1275 FILLER_0_25_43
*1276 FILLER_0_25_52
*1277 FILLER_0_25_60
*1278 FILLER_0_25_72
*1279 FILLER_0_25_76
*1280 FILLER_0_26_101
*1281 FILLER_0_26_134
*1282 FILLER_0_26_141
*1283 FILLER_0_26_15
*1284 FILLER_0_26_153
*1285 FILLER_0_26_165
*1286 FILLER_0_26_173
*1287 FILLER_0_26_202
*1288 FILLER_0_26_233
*1289 FILLER_0_26_245
*1290 FILLER_0_26_27
*1291 FILLER_0_26_271
*1292 FILLER_0_26_29
*1293 FILLER_0_26_3
*1294 FILLER_0_26_301
*1295 FILLER_0_26_309
*1296 FILLER_0_26_320
*1297 FILLER_0_26_332
*1298 FILLER_0_26_41
*1299 FILLER_0_26_69
*1300 FILLER_0_26_77
*1301 FILLER_0_27_106
*1302 FILLER_0_27_147
*1303 FILLER_0_27_15
*1304 FILLER_0_27_155
*1305 FILLER_0_27_169
*1306 FILLER_0_27_206
*1307 FILLER_0_27_219
*1308 FILLER_0_27_223
*1309 FILLER_0_27_240
*1310 FILLER_0_27_252
*1311 FILLER_0_27_265
*1312 FILLER_0_27_27
*1313 FILLER_0_27_273
*1314 FILLER_0_27_3
*1315 FILLER_0_27_306
*1316 FILLER_0_27_318
*1317 FILLER_0_27_330
*1318 FILLER_0_27_334
*1319 FILLER_0_27_39
*1320 FILLER_0_27_55
*1321 FILLER_0_27_94
*1322 FILLER_0_28_108
*1323 FILLER_0_28_116
*1324 FILLER_0_28_138
*1325 FILLER_0_28_141
*1326 FILLER_0_28_149
*1327 FILLER_0_28_15
*1328 FILLER_0_28_157
*1329 FILLER_0_28_189
*1330 FILLER_0_28_195
*1331 FILLER_0_28_197
*1332 FILLER_0_28_209
*1333 FILLER_0_28_241
*1334 FILLER_0_28_249
*1335 FILLER_0_28_253
*1336 FILLER_0_28_27
*1337 FILLER_0_28_276
*1338 FILLER_0_28_284
*1339 FILLER_0_28_29
*1340 FILLER_0_28_291
*1341 FILLER_0_28_297
*1342 FILLER_0_28_3
*1343 FILLER_0_28_305
*1344 FILLER_0_28_313
*1345 FILLER_0_28_325
*1346 FILLER_0_28_333
*1347 FILLER_0_28_41
*1348 FILLER_0_28_53
*1349 FILLER_0_28_65
*1350 FILLER_0_28_80
*1351 FILLER_0_28_85
*1352 FILLER_0_28_89
*1353 FILLER_0_28_96
*1354 FILLER_0_29_106
*1355 FILLER_0_29_113
*1356 FILLER_0_29_117
*1357 FILLER_0_29_143
*1358 FILLER_0_29_15
*1359 FILLER_0_29_167
*1360 FILLER_0_29_190
*1361 FILLER_0_29_197
*1362 FILLER_0_29_209
*1363 FILLER_0_29_217
*1364 FILLER_0_29_244
*1365 FILLER_0_29_256
*1366 FILLER_0_29_268
*1367 FILLER_0_29_27
*1368 FILLER_0_29_281
*1369 FILLER_0_29_293
*1370 FILLER_0_29_3
*1371 FILLER_0_29_311
*1372 FILLER_0_29_323
*1373 FILLER_0_29_39
*1374 FILLER_0_29_51
*1375 FILLER_0_29_55
*1376 FILLER_0_29_57
*1377 FILLER_0_29_69
*1378 FILLER_0_29_77
*1379 FILLER_0_2_109
*1380 FILLER_0_2_121
*1381 FILLER_0_2_133
*1382 FILLER_0_2_139
*1383 FILLER_0_2_141
*1384 FILLER_0_2_15
*1385 FILLER_0_2_153
*1386 FILLER_0_2_165
*1387 FILLER_0_2_177
*1388 FILLER_0_2_189
*1389 FILLER_0_2_195
*1390 FILLER_0_2_197
*1391 FILLER_0_2_209
*1392 FILLER_0_2_221
*1393 FILLER_0_2_233
*1394 FILLER_0_2_245
*1395 FILLER_0_2_251
*1396 FILLER_0_2_253
*1397 FILLER_0_2_265
*1398 FILLER_0_2_27
*1399 FILLER_0_2_277
*1400 FILLER_0_2_289
*1401 FILLER_0_2_29
*1402 FILLER_0_2_3
*1403 FILLER_0_2_301
*1404 FILLER_0_2_307
*1405 FILLER_0_2_309
*1406 FILLER_0_2_321
*1407 FILLER_0_2_333
*1408 FILLER_0_2_41
*1409 FILLER_0_2_53
*1410 FILLER_0_2_65
*1411 FILLER_0_2_77
*1412 FILLER_0_2_83
*1413 FILLER_0_2_85
*1414 FILLER_0_2_97
*1415 FILLER_0_30_106
*1416 FILLER_0_30_129
*1417 FILLER_0_30_137
*1418 FILLER_0_30_145
*1419 FILLER_0_30_15
*1420 FILLER_0_30_153
*1421 FILLER_0_30_187
*1422 FILLER_0_30_205
*1423 FILLER_0_30_216
*1424 FILLER_0_30_224
*1425 FILLER_0_30_234
*1426 FILLER_0_30_242
*1427 FILLER_0_30_250
*1428 FILLER_0_30_257
*1429 FILLER_0_30_269
*1430 FILLER_0_30_27
*1431 FILLER_0_30_281
*1432 FILLER_0_30_29
*1433 FILLER_0_30_293
*1434 FILLER_0_30_3
*1435 FILLER_0_30_305
*1436 FILLER_0_30_309
*1437 FILLER_0_30_321
*1438 FILLER_0_30_333
*1439 FILLER_0_30_41
*1440 FILLER_0_30_53
*1441 FILLER_0_30_61
*1442 FILLER_0_31_106
*1443 FILLER_0_31_111
*1444 FILLER_0_31_113
*1445 FILLER_0_31_121
*1446 FILLER_0_31_127
*1447 FILLER_0_31_131
*1448 FILLER_0_31_135
*1449 FILLER_0_31_140
*1450 FILLER_0_31_15
*1451 FILLER_0_31_152
*1452 FILLER_0_31_164
*1453 FILLER_0_31_169
*1454 FILLER_0_31_178
*1455 FILLER_0_31_197
*1456 FILLER_0_31_209
*1457 FILLER_0_31_221
*1458 FILLER_0_31_225
*1459 FILLER_0_31_237
*1460 FILLER_0_31_241
*1461 FILLER_0_31_258
*1462 FILLER_0_31_27
*1463 FILLER_0_31_270
*1464 FILLER_0_31_278
*1465 FILLER_0_31_281
*1466 FILLER_0_31_293
*1467 FILLER_0_31_3
*1468 FILLER_0_31_305
*1469 FILLER_0_31_317
*1470 FILLER_0_31_329
*1471 FILLER_0_31_39
*1472 FILLER_0_31_51
*1473 FILLER_0_31_55
*1474 FILLER_0_31_57
*1475 FILLER_0_31_69
*1476 FILLER_0_31_98
*1477 FILLER_0_32_112
*1478 FILLER_0_32_118
*1479 FILLER_0_32_123
*1480 FILLER_0_32_127
*1481 FILLER_0_32_139
*1482 FILLER_0_32_141
*1483 FILLER_0_32_15
*1484 FILLER_0_32_153
*1485 FILLER_0_32_159
*1486 FILLER_0_32_163
*1487 FILLER_0_32_168
*1488 FILLER_0_32_177
*1489 FILLER_0_32_192
*1490 FILLER_0_32_197
*1491 FILLER_0_32_209
*1492 FILLER_0_32_253
*1493 FILLER_0_32_265
*1494 FILLER_0_32_27
*1495 FILLER_0_32_277
*1496 FILLER_0_32_289
*1497 FILLER_0_32_29
*1498 FILLER_0_32_3
*1499 FILLER_0_32_301
*1500 FILLER_0_32_307
*1501 FILLER_0_32_309
*1502 FILLER_0_32_321
*1503 FILLER_0_32_333
*1504 FILLER_0_32_41
*1505 FILLER_0_32_53
*1506 FILLER_0_32_65
*1507 FILLER_0_32_77
*1508 FILLER_0_32_83
*1509 FILLER_0_32_85
*1510 FILLER_0_32_91
*1511 FILLER_0_33_101
*1512 FILLER_0_33_111
*1513 FILLER_0_33_113
*1514 FILLER_0_33_117
*1515 FILLER_0_33_134
*1516 FILLER_0_33_146
*1517 FILLER_0_33_15
*1518 FILLER_0_33_169
*1519 FILLER_0_33_192
*1520 FILLER_0_33_204
*1521 FILLER_0_33_208
*1522 FILLER_0_33_211
*1523 FILLER_0_33_222
*1524 FILLER_0_33_228
*1525 FILLER_0_33_240
*1526 FILLER_0_33_252
*1527 FILLER_0_33_264
*1528 FILLER_0_33_27
*1529 FILLER_0_33_276
*1530 FILLER_0_33_281
*1531 FILLER_0_33_293
*1532 FILLER_0_33_3
*1533 FILLER_0_33_305
*1534 FILLER_0_33_317
*1535 FILLER_0_33_329
*1536 FILLER_0_33_39
*1537 FILLER_0_33_51
*1538 FILLER_0_33_55
*1539 FILLER_0_33_57
*1540 FILLER_0_33_69
*1541 FILLER_0_33_81
*1542 FILLER_0_33_93
*1543 FILLER_0_34_101
*1544 FILLER_0_34_113
*1545 FILLER_0_34_121
*1546 FILLER_0_34_127
*1547 FILLER_0_34_139
*1548 FILLER_0_34_147
*1549 FILLER_0_34_15
*1550 FILLER_0_34_159
*1551 FILLER_0_34_182
*1552 FILLER_0_34_192
*1553 FILLER_0_34_197
*1554 FILLER_0_34_205
*1555 FILLER_0_34_223
*1556 FILLER_0_34_235
*1557 FILLER_0_34_247
*1558 FILLER_0_34_251
*1559 FILLER_0_34_253
*1560 FILLER_0_34_265
*1561 FILLER_0_34_27
*1562 FILLER_0_34_277
*1563 FILLER_0_34_289
*1564 FILLER_0_34_29
*1565 FILLER_0_34_3
*1566 FILLER_0_34_301
*1567 FILLER_0_34_307
*1568 FILLER_0_34_309
*1569 FILLER_0_34_321
*1570 FILLER_0_34_333
*1571 FILLER_0_34_41
*1572 FILLER_0_34_53
*1573 FILLER_0_34_65
*1574 FILLER_0_34_77
*1575 FILLER_0_34_83
*1576 FILLER_0_34_85
*1577 FILLER_0_35_103
*1578 FILLER_0_35_121
*1579 FILLER_0_35_141
*1580 FILLER_0_35_15
*1581 FILLER_0_35_153
*1582 FILLER_0_35_161
*1583 FILLER_0_35_167
*1584 FILLER_0_35_169
*1585 FILLER_0_35_196
*1586 FILLER_0_35_204
*1587 FILLER_0_35_234
*1588 FILLER_0_35_246
*1589 FILLER_0_35_258
*1590 FILLER_0_35_27
*1591 FILLER_0_35_270
*1592 FILLER_0_35_278
*1593 FILLER_0_35_281
*1594 FILLER_0_35_293
*1595 FILLER_0_35_3
*1596 FILLER_0_35_305
*1597 FILLER_0_35_317
*1598 FILLER_0_35_329
*1599 FILLER_0_35_39
*1600 FILLER_0_35_51
*1601 FILLER_0_35_55
*1602 FILLER_0_35_57
*1603 FILLER_0_35_69
*1604 FILLER_0_35_81
*1605 FILLER_0_36_104
*1606 FILLER_0_36_147
*1607 FILLER_0_36_15
*1608 FILLER_0_36_193
*1609 FILLER_0_36_197
*1610 FILLER_0_36_203
*1611 FILLER_0_36_215
*1612 FILLER_0_36_227
*1613 FILLER_0_36_239
*1614 FILLER_0_36_251
*1615 FILLER_0_36_253
*1616 FILLER_0_36_265
*1617 FILLER_0_36_27
*1618 FILLER_0_36_277
*1619 FILLER_0_36_289
*1620 FILLER_0_36_29
*1621 FILLER_0_36_3
*1622 FILLER_0_36_301
*1623 FILLER_0_36_307
*1624 FILLER_0_36_309
*1625 FILLER_0_36_321
*1626 FILLER_0_36_333
*1627 FILLER_0_36_41
*1628 FILLER_0_36_53
*1629 FILLER_0_36_65
*1630 FILLER_0_36_77
*1631 FILLER_0_36_83
*1632 FILLER_0_36_85
*1633 FILLER_0_36_97
*1634 FILLER_0_37_111
*1635 FILLER_0_37_113
*1636 FILLER_0_37_121
*1637 FILLER_0_37_148
*1638 FILLER_0_37_160
*1639 FILLER_0_37_165
*1640 FILLER_0_37_178
*1641 FILLER_0_37_18
*1642 FILLER_0_37_186
*1643 FILLER_0_37_190
*1644 FILLER_0_37_223
*1645 FILLER_0_37_225
*1646 FILLER_0_37_237
*1647 FILLER_0_37_249
*1648 FILLER_0_37_261
*1649 FILLER_0_37_273
*1650 FILLER_0_37_279
*1651 FILLER_0_37_281
*1652 FILLER_0_37_293
*1653 FILLER_0_37_30
*1654 FILLER_0_37_305
*1655 FILLER_0_37_317
*1656 FILLER_0_37_329
*1657 FILLER_0_37_42
*1658 FILLER_0_37_54
*1659 FILLER_0_37_57
*1660 FILLER_0_37_6
*1661 FILLER_0_37_69
*1662 FILLER_0_37_81
*1663 FILLER_0_37_89
*1664 FILLER_0_38_109
*1665 FILLER_0_38_113
*1666 FILLER_0_38_125
*1667 FILLER_0_38_138
*1668 FILLER_0_38_141
*1669 FILLER_0_38_146
*1670 FILLER_0_38_15
*1671 FILLER_0_38_153
*1672 FILLER_0_38_159
*1673 FILLER_0_38_173
*1674 FILLER_0_38_183
*1675 FILLER_0_38_194
*1676 FILLER_0_38_197
*1677 FILLER_0_38_201
*1678 FILLER_0_38_209
*1679 FILLER_0_38_216
*1680 FILLER_0_38_223
*1681 FILLER_0_38_225
*1682 FILLER_0_38_230
*1683 FILLER_0_38_239
*1684 FILLER_0_38_251
*1685 FILLER_0_38_253
*1686 FILLER_0_38_265
*1687 FILLER_0_38_27
*1688 FILLER_0_38_271
*1689 FILLER_0_38_278
*1690 FILLER_0_38_281
*1691 FILLER_0_38_285
*1692 FILLER_0_38_29
*1693 FILLER_0_38_292
*1694 FILLER_0_38_299
*1695 FILLER_0_38_3